$DATA1 SOURCE='HSPICE' VERSION='L-2016.06-SP1 win64' PARAM_COUNT=0
.TITLE '*********4 bit counter *********'
 avgpower         temper           alter#          
  4.872e-005        25.0000        1               
