****** HSPICE -- L-2016.06-SP1 win64 (Aug 24 2016) ******
 Input File: gray.sp
 lic:
 lic: FLEXlm: v11.2.1
 lic: USER:   My Family            HOSTNAME: DESKTOP-B28T64S
 lic: HOSTID: "bcf685017334"       PID:      4372
 lic: Using FLEXlm license file:
 lic: 27000@DESKTOP-B28T64S
 lic: Checkout 1 hspice
 lic: License/Maintenance for hspice will expire on 30-dec-2020/2019.2019
 lic: 1(in_use)/99(total) FLOATING license(s) on SERVER 27000@DESKTOP-B28T64S
 lic:
 init: begin read circuit files,  cpu clock=  1.87E-01
       option search = C:\synopsys\Hspice_L-2016.06-SP1\parts\behave\
       option search = C:\synopsys\Hspice_L-2016.06-SP1\parts\AD\
       option search = C:\synopsys\Hspice_L-2016.06-SP1\parts\XILINX\
       option search = C:\synopsys\Hspice_L-2016.06-SP1\parts\TLINE\
       option search = C:\synopsys\Hspice_L-2016.06-SP1\parts\TI\
       option search = C:\synopsys\Hspice_L-2016.06-SP1\parts\SIGNET\
       option search = C:\synopsys\Hspice_L-2016.06-SP1\parts\PCI\
       option search = C:\synopsys\Hspice_L-2016.06-SP1\parts\LIN_TECH\
       option search = C:\synopsys\Hspice_L-2016.06-SP1\parts\PET\
       option search = C:\synopsys\Hspice_L-2016.06-SP1\parts\DI0\
       option search = C:\synopsys\Hspice_L-2016.06-SP1\parts\COMLINE\
       option search = C:\synopsys\Hspice_L-2016.06-SP1\parts\BURR_BRM\
       option search = C:\synopsys\Hspice_L-2016.06-SP1\parts\BJT\
       option runlvl
 init: end read circuit files,  cpu clock=  1.87E-01 peak memory=        47 mb
 init: begin check errors,  cpu clock=  1.87E-01
  **warning**  No DC path to ground from node        0:                vc0
 init: end check errors,  cpu clock=  2.03E-01 peak memory=        48 mb
 init: begin setup matrix, pivot=     0 cpu clock=  2.03E-01
       establish matrix -- done,  cpu clock=  2.03E-01 peak memory=        48 mb
       re-order matrix -- done,  cpu clock=  2.18E-01 peak memory=        48 mb
 init: end setup matrix,  cpu clock=  2.18E-01 peak memory=        48 mb
 dcop: begin dcop,  cpu clock=  2.18E-01
 dcop: end dcop,  cpu clock=  2.18E-01 peak memory=        48 mb  tot_iter=       3
 sweep: tran tran0    begin, stop_t=  6.00E-07 #sweeps=6001 cpu clock=  2.18E-01
 tran: time= 6.6400E-08 tot_iter=      50 conv_iter=      25 cpu clock= 2.34E-01
 tran: time= 1.2001E-07 tot_iter=      54 conv_iter=      27 cpu clock= 2.34E-01
 tran: time= 1.8001E-07 tot_iter=      58 conv_iter=      29 cpu clock= 2.34E-01
 tran: time= 2.4001E-07 tot_iter=      62 conv_iter=      31 cpu clock= 2.34E-01
 tran: time= 3.0001E-07 tot_iter=      66 conv_iter=      33 cpu clock= 2.34E-01
 tran: time= 3.6001E-07 tot_iter=      70 conv_iter=      35 cpu clock= 2.34E-01
 tran: time= 4.2001E-07 tot_iter=      74 conv_iter=      37 cpu clock= 2.49E-01
 tran: time= 4.8001E-07 tot_iter=      78 conv_iter=      39 cpu clock= 2.49E-01
 tran: time= 5.4001E-07 tot_iter=      82 conv_iter=      41 cpu clock= 2.49E-01
 tran: time= 6.0000E-07 tot_iter=      86 conv_iter=      43 cpu clock= 2.49E-01
 sweep: tran tran0    end,  cpu clock=  2.49E-01 peak memory=        48 mb
>info:         ***** hspice job concluded
 lic: Release hspice token(s)
