 ****** HSPICE -- L-2016.06-SP1 win64 (Aug 24 2016) ******                      
  Copyright (c) 1986 - 2020 by Synopsys, Inc. All Rights Reserved.              
  This software and the associated documentation are proprietary
  to Synopsys, Inc. This software may only be used in accordance
  with the terms and conditions of a written license agreement with
  Synopsys, Inc. All other use, reproduction, or distribution of
  this software is strictly prohibited.
  Input File: adder90nm.sp                                                      
  Command line options: C:\synopsys\Hspice_L-2016.06-SP1\WIN64\hspice.com -i adder90nm.sp -o C:\Users\My Family\Desktop\hsp\adder90nm.lis
  lic:  
  lic: FLEXlm: v11.2.1 
  lic: USER:   My Family            HOSTNAME: DESKTOP-B28T64S 
  lic: HOSTID: "bcf685017334"       PID:      4116 
  lic: Using FLEXlm license file: 
  lic: 27000@DESKTOP-B28T64S 
  lic: Checkout 1 hspice 
  lic: License/Maintenance for hspice will expire on 30-dec-2020/2019.2019 
  lic: 1(in_use)/99(total) FLOATING license(s) on SERVER 27000@DESKTOP-B28T64S 
  lic:   
  **info** (adder90nm.sp:12) DC voltage reset to initial transient source value in source 0:va0. new dc=0.5000D+01
 Model file: TSMC_90nm.l
 Model line:        11259
 Model Name: pch.9  
 BSIM4 Model (Level 54)
    MOBMOD = 0
    BINUNIT = 2
    PARAMCHK = 1
    CAPMOD = 2
    DIOMOD = 1
    RDSMOD = 0
    TRNQSMOD = 0
    ACNQSMOD = 0
    RBODYMOD = 0
    RGATEMOD = 0
    PERMOD = 1
    GEOMOD = 0
    RGEOMOD = 0
    FNOIMOD = 1
    TNOIMOD = 0
    IGCMOD = 1
    IGBMOD = 1
    STIMOD = 1
    VBFWDMOD = 0
    VERSION =    4.4 
    TOXREF = 3e-009 
    TOXE = 2.5e-009 
    TOXP = 1.975e-009 
    TOXM = 2.5e-009 
    DTOX = 5.25e-010 
    EPSROX =    3.9 
    CDSC =      0 
    CDSCB =      0 
    CDSCD =      0 
    CIT = 0.001086 
    NFACTOR =  0.329 
    XJ = 1.7e-007 
    VSAT = 1.2e+005 
    A0 =   3.62 
    AGS = -0.1992 
    A1 =      0 
    A2 =      1 
    AT = 3.556e+005 
    KETA = -0.1405 
    NSUB = 6e+016 
    NDEP = 1.72e+017 
    NSD = 1e+020 
    NGATE = 8e+019 
    GAMMA1 =      0 
    GAMMA2 =      0 
    VBX =      0 
    VBM =     -3 
    XT = 1.55e-007 
    K1 = 0.1623 
    KT1 = -0.3094 
    KT1L =      0 
    KT2 = -0.02253 
    K2 = 0.03705 
    K3 =  -0.58 
    K3B =    0.8 
    LPE0 = 2.805e-007 
    LPEB = 1e-007 
    DVTP0 =      0 
    DVTP1 =      0 
    W0 =      0 
    DVT0 =     10 
    DVT1 =   1.71 
    DVT2 = 0.0928 
    DVT0W =      0 
    DVT1W =      0 
    DVT2W =      0 
    DROUT =      0 
    DSUB =    0.5 
    VTH0 = -0.2049 
    EU =      1 
    UA = -6.948e-010 
    UA1 = 8.159e-010 
    UB = 2.455e-018 
    UB1 = -3.729e-018 
    UC = 9.028e-011 
    UC1 = -6.421e-011 
    U0 = 0.009796 
    UTE = -1.786 
    VOFF = -0.1134 
    VOFFL =      0 
    MINV =      0 
    FPROUT =   1000 
    PDITS =      0 
    PDITSD =      0 
    PDITSL =      0 
    DELTA =   0.02 
    RDSW =    210 
    RDSWMIN =      0 
    RDWMIN =      0 
    RSWMIN =      0 
    RDW =    100 
    RSW =    100 
    PRWG =      0 
    PRWB =      0 
    PRT =      0 
    ETA0 = 0.04781 
    ETAB =  -0.02 
    PCLM =  1.377 
    PDIBLC1 =      0 
    PDIBLC2 =  0.005 
    PDIBLCB =      0 
    PSCBE1 = 9.264e+008 
    PSCBE2 = 1e-020 
    PVAG =      0 
    WR =      1 
    DWG =      0 
    DWB =      0 
    XW = 1e-008 
    XWREF = 1e-008 
    XL = -3.5e-008 
    XLREF = -3.5e-008 
    B0 =      0 
    B1 =      0 
    ALPHA0 =      0 
    ALPHA1 =   0.06 
    AGIDL = 9e-008 
    BGIDL = 2.3e+009 
    CGIDL =    0.5 
    PHIN =      0 
    EGIDL =   0.53 
    AIGC = 0.00606 
    BIGC = 0.0007625 
    CIGC = 1e-010 
    AIGSD = 0.004582 
    BIGSD =      0 
    CIGSD = 0.002267 
    AIGBACC = 0.01069 
    BIGBACC = 0.003132 
    CIGBACC = 0.1498 
    AIGBINV =   0.35 
    BIGBINV =   0.03 
    CIGBINV =  0.006 
    NIGC =      1 
    NIGBINV =      1 
    NIGBACC =  4.049 
    NTOX =      1 
    EIGBINV =    1.1 
    PIGCD =    2.3 
    POXEDGE =      1 
    XRCRG1 =     12 
    TNOIA =    1.5 
    TNOIB =    3.5 
    NTNOI =      1 
    XRCRG2 =      1 
    BETA0 =     12 
    IJTHDFWD =   0.01 
    IJTHSFWD =   0.01 
    IJTHDREV =   0.01 
    IJTHSREV =   0.01 
    XJBVD =      1 
    XJBVS =      1 
    BVD =     10 
    BVS =     10 
    VFB =     -1 
    GBMIN = 1e-012 
    RBDB =     50 
    RBPB =     50 
    RBSB =     50 
    RBPS =     50 
    RBPD =     50 
    CGSL = 1.896e-010 
    CGDL = 1.896e-010 
    CKAPPAS =    0.6 
    CKAPPAD =    0.6 
    CF = 1.38e-010 
    CLC = 1e-007 
    CLE =    0.6 
    DWC =      0 
    DLC = 1.525e-008 
    DLCIG = 2.5e-009 
    DWJ =      0 
    VFBCV =     -1 
    ACDE =    1.2 
    MOIN =  11.09 
    NOFF =  2.175 
    VOFFCV = -0.03885 
    DMCG = 9.25e-008 
    DMCI = 9.25e-008 
    DMDG =      0 
    DMCGT =      0 
    XGW =      0 
    XGL =      0 
    RSHG =    0.1 
    NGCON =      1 
    TCJ = 0.000854 
    TPB = 0.0019 
    TCJSW = 0.000357 
    TPBSW = 0.0019 
    TCJSWG = 0.00312 
    TPBSWG = 0.0019 
    SK0 =      0 
    SK1 =      0 
    SK2 =      0 
    SL = 2e-006 
    SW = 2e-006 
    K =      0 
    LCIT = -3.951e-011 
    LNFACTOR = 7.867e-008 
    LAT = -0.03669 
    LAGS = 1.461e-006 
    LKETA = -5.98e-009 
    LKT1 = 8.553e-009 
    LKT2 = -3.245e-009 
    LK2 = -6.096e-010 
    LVTH0 = 6.318e-009 
    LUA = 4.07e-019 
    LUA1 = 2.084e-016 
    LUB = 4.942e-026 
    LUB1 = -5.247e-026 
    LUC = 6.263e-018 
    LU0 = -5.324e-011 
    LUTE = 8.706e-008 
    LVOFF = -2.926e-009 
    LETA0 = 1.711e-008 
    LPCLM = -1.734e-007 
    WCIT = -8.594e-010 
    WNFACTOR = 1.719e-007 
    WAT = -0.01151 
    WKT1 = 1.72e-008 
    WK2 = -2.174e-009 
    WVTH0 = 1.103e-008 
    WUA = 2.778e-017 
    WUA1 = -5.406e-016 
    WUB = 2.158e-025 
    WUB1 = 1.082e-025 
    WU0 = -1.075e-009 
    WUTE = -1.042e-007 
    WVOFF = -3.816e-009 
    WETA0 = 2.578e-008 
    WAIGSD = 7.821e-011 
    PCIT = 3.953e-016 
    PNFACTOR = -7.907e-014 
    PAT = 5.653e-009 
    PKT1 = -3.439e-015 
    PK2 = 4.349e-016 
    PVTH0 = -5.535e-016 
    PUA = 3.716e-024 
    PUA1 = 1.061e-022 
    PUB = -8.025e-032 
    PUB1 = -3.795e-032 
    PU0 = -1.364e-016 
    PUTE = 4.23e-014 
    PVOFF = 2.372e-015 
    PETA0 = -1.186e-014 
    TNOM =  298.1 
    CGSO = 2.568e-011 
    CGDO = 2.568e-011 
    CGBO =      0 
    XPART =      1 
    RSH =   9.68 
    JSS = 1.245e-007 
    JSWS = 3.77e-013 
    JSWGS = 3e-012 
    PBS =    0.8 
    MJS =   0.36 
    PBSWS =    0.8 
    MJSWS =   0.01 
    CJS = 0.00114 
    CJSWS = 6e-011 
    NJS =      1 
    PBSWGS =      1 
    MJSWGS =   0.99 
    CJSWGS = 3.6e-010 
    XTIS =      3 
    JSD = 1.245e-007 
    JSWD = 3.77e-013 
    JSWGD = 3e-012 
    PBD =    0.8 
    MJD =   0.36 
    PBSWD =    0.8 
    MJSWD =   0.01 
    CJD = 0.00114 
    CJSWD = 6e-011 
    NJD =      1 
    PBSWGD =      1 
    MJSWGD =   0.99 
    CJSWGD = 3.6e-010 
    XTID =      3 
    LMLT =      1 
    WMLT =      1 
    LINT = 2.5e-009 
    LL =      0 
    LLC =      0 
    LLN =      1 
    LW =      0 
    LWC =      0 
    LWN =      1 
    LWL =      0 
    LWLC =      0 
    LMIN = 2.4e-007 
    LMAX = 5e-007 
    WINT = 5e-009 
    WL =      0 
    WLC =      0 
    WLN =      1 
    WW =      0 
    WWC =      0 
    WWN =      1 
    WWL =      0 
    WWLC =      0 
    WMIN = 1.005e-006 
    WMAX = 1.001e-005 
    NOIA = 1.635e+042 
    NOIB = 7.241e+026 
    NOIC =   8.75 
    EM = 1.5e+008 
    EF =   1.19 
    AF =      1 
    KF =      0 
    TRS =      0 
    TRD =      0 
    TEMPMOD  =      0 
    LAMBDA   =      0 
    VTL      = 2e+005 m/s
    LC       = 5e-009 
    XN       =      3 
    LLAMBDA  =      0 
    LVTL     =      0 
    LXN      =      0 
    WLAMBDA  =      0 
    WVTL     =      0 
    WXN      =      0 
    PLAMBDA  =      0 
    PVTL     =      0 
    PXN      =      0 
    RNOIA    =  0.577 
    RNOIB    = 0.5164 
    SAREF(SA0) = 6.3e-007 m
    SBREF(SB0) = 6.3e-007 m
    WLOD     = 8e-007 m
    KU0      = 1.325e-007 1/m
    KVSAT    =   -0.9 
    KVTH0    = -1.5e-009 m
    TKU0     =    0.1 
    LLODKU0  =      1 
    WLODKU0  =      1 
    LLODVTH  =      2 
    WLODVTH  =      1 
    LKU0     = 1.33e-007 
    WKU0     = 6.5e-007 
    PKU0     =      0 
    LKVTH0   = -1.68e-015 
    WKVTH0   = 5e-007 
    PKVTH0   =      0 
    STK2     = 4e-010 
    LODK2    =      2 
    STETA0   =      0 
    LODETA0  =      1 
    LXRCRG1  =      0 
    WXRCRG1  =      0 
    PXRCRG1  =      0 
    LXRCRG2  =      0 
    WXRCRG2  =      0 
    PXRCRG2  =      0 
     *** UCB's BSIM4.4.0 new diode model is activated. ***
    *** UCB's Diode Model Parameters ***
    JTSS         =      0 
    JTSSWS       =      0 
    JTSSWGS      =      0 
    JTSD         =      0 
    JTSSWD       =      0 
    JTSSWGD      =      0 
    NJTS         =     20 
    NJTSSW       =     20 
    NJTSSWG      =     20 
    XTSS         =   0.02 
    XTSSWS       =   0.02 
    XTSSWGS      =   0.02 
    XTSD         =   0.02 
    XTSSWD       =   0.02 
    XTSSWGD      =   0.02 
    TNJTS        =      0 
    TNJTSSW      =      0 
    TNJTSSWG     =      0 
    VFBSDOFF     =      0 
    LVFBSDOFF    =      0 
    WVFBSDOFF    =      0 
    PVFBSDOFF    =      0 
    LINTNOI      =      0 
    VTSS         =     10 
    VTSD         =     10 
    VTSSWS       =     10 
    VTSSWD       =     10 
    VTSSWGS      =     10 
    VTSSWGD      =     10 
    TTDIOMOD     =      1 
 Model file: TSMC_90nm.l
 Model line:         9967
 Model Name: nch.15  
 BSIM4 Model (Level 54)
    MOBMOD = 0
    BINUNIT = 2
    PARAMCHK = 1
    CAPMOD = 2
    DIOMOD = 1
    RDSMOD = 0
    TRNQSMOD = 0
    ACNQSMOD = 0
    RBODYMOD = 0
    RGATEMOD = 0
    PERMOD = 1
    GEOMOD = 0
    RGEOMOD = 0
    FNOIMOD = 1
    TNOIMOD = 0
    IGCMOD = 1
    IGBMOD = 1
    STIMOD = 1
    VBFWDMOD = 0
    VERSION =    4.4 
    TOXREF = 3e-009 
    TOXE = 2.33e-009 
    TOXP = 2.03e-009 
    TOXM = 2.33e-009 
    DTOX = 3e-010 
    EPSROX =    3.9 
    CDSC =      0 
    CDSCB =      0 
    CDSCD =      0 
    CIT = -0.0007692 
    NFACTOR =    0.5 
    XJ = 1.5e-007 
    VSAT = 1.14e+005 
    A0 =  2.375 
    AGS =  1.392 
    A1 =      0 
    A2 =      1 
    AT = 4.5e+004 
    KETA = -0.05885 
    NSUB = 6e+016 
    NDEP = 8.369e+017 
    NSD = 1e+020 
    NGATE = 4e+020 
    GAMMA1 =      0 
    GAMMA2 =      0 
    VBX =      0 
    VBM =     -3 
    XT = 1.55e-007 
    K1 = 0.3231 
    KT1 = -0.2006 
    KT1L =      0 
    KT2 = -0.04464 
    K2 = 0.005615 
    K3 = -2.562 
    K3B =    1.2 
    LPE0 = 4.45e-008 
    LPEB =      0 
    DVTP0 = 4e-007 
    DVTP1 =      2 
    W0 = -5e-008 
    DVT0 =   13.9 
    DVT1 =   1.25 
    DVT2 =      0 
    DVT0W =      0 
    DVT1W =      0 
    DVT2W =      0 
    DROUT =      0 
    DSUB =    0.5 
    VTH0 =  0.228 
    EU =   1.67 
    UA = -6.284e-010 
    UA1 = 2.684e-009 
    UB = 1.188e-018 
    UB1 = -3.673e-018 
    UC = 8.464e-011 
    UC1 = -1.014e-011 
    U0 = 0.02973 
    UTE = -1.484 
    VOFF = -0.1218 
    VOFFL =      0 
    MINV =      0 
    FPROUT =    200 
    PDITS =      0 
    PDITSD =      0 
    PDITSL =      0 
    DELTA = 0.0075 
    RDSW =    140 
    RDSWMIN =      0 
    RDWMIN =      0 
    RSWMIN =      0 
    RDW =    100 
    RSW =    100 
    PRWG =      0 
    PRWB =      0 
    PRT =      0 
    ETA0 = 0.2301 
    ETAB =   -0.1 
    PCLM =   0.84 
    PDIBLC1 =      0 
    PDIBLC2 = 0.0001 
    PDIBLCB =      0 
    PSCBE1 = 9.264e+008 
    PSCBE2 = 1e-020 
    PVAG =    1.5 
    WR =      1 
    DWG =      0 
    DWB =      0 
    XW = 1e-008 
    XWREF = 1e-008 
    XL = -3.5e-008 
    XLREF = -3.5e-008 
    B0 =      0 
    B1 =      0 
    ALPHA0 =      0 
    ALPHA1 =   0.03 
    AGIDL = 9e-008 
    BGIDL = 2.3e+009 
    CGIDL =    0.5 
    PHIN =      0 
    EGIDL =   0.53 
    AIGC = 0.0103 
    BIGC = 0.001525 
    CIGC =      0 
    AIGSD = 0.00845 
    BIGSD = 0.0004021 
    CIGSD = 0.001463 
    AIGBACC = 0.01134 
    BIGBACC = 0.003249 
    CIGBACC = 0.1416 
    AIGBINV =   0.35 
    BIGBINV =   0.03 
    CIGBINV =  0.006 
    NIGC =      1 
    NIGBINV =      1 
    NIGBACC =   4.05 
    NTOX =      1 
    EIGBINV =    1.1 
    PIGCD =    2.3 
    POXEDGE =      1 
    XRCRG1 =     12 
    TNOIA =    1.5 
    TNOIB =    3.5 
    NTNOI =      1 
    XRCRG2 =      1 
    BETA0 =    8.7 
    IJTHDFWD =   0.01 
    IJTHSFWD =   0.01 
    IJTHDREV =   0.01 
    IJTHSREV =   0.01 
    XJBVD =      1 
    XJBVS =      1 
    BVD =     10 
    BVS =     10 
    VFB =     -1 
    GBMIN = 1e-012 
    RBDB =     50 
    RBPB =     50 
    RBSB =     50 
    RBPS =     50 
    RBPD =     50 
    CGSL = 6.514e-011 
    CGDL = 6.514e-011 
    CKAPPAS =    0.6 
    CKAPPAD =    0.6 
    CF = 1.38e-010 
    CLC = 1e-007 
    CLE =    0.6 
    DWC =      0 
    DLC = 1.172e-008 
    DLCIG = 2.5e-009 
    DWJ =      0 
    VFBCV =     -1 
    ACDE =    1.2 
    MOIN =   12.6 
    NOFF =  1.686 
    VOFFCV = -0.05472 
    DMCG = 9.25e-008 
    DMCI = 9.25e-008 
    DMDG =      0 
    DMCGT =      0 
    XGW =      0 
    XGL =      0 
    RSHG =    0.1 
    NGCON =      1 
    TCJ = 0.000732 
    TPB =  0.001 
    TCJSW = 0.000357 
    TPBSW = 0.0019 
    TCJSWG = 0.000357 
    TPBSWG = 0.0019 
    SK0 =      0 
    SK1 =      0 
    SK2 =      0 
    SL = 2e-006 
    SW = 2e-006 
    K =      0 
    LCIT = 3.538e-010 
    LAGS = -8.846e-008 
    LKETA = 6.369e-009 
    LKT1 = -1.398e-008 
    LK2 = -2.123e-009 
    LK3 = -6.369e-008 
    LUB = -2.744e-026 
    LUC = 8.124e-018 
    LUC1 = -2.487e-017 
    LUTE = 8.168e-009 
    LVOFF = -2.73e-009 
    WUB = 3.132e-026 
    WUC = 8.574e-018 
    WU0 = -4.701e-010 
    WUTE = 5.63e-008 
    WVOFF = 1.736e-009 
    WETA0 = -2.068e-008 
    PUB = 1.164e-033 
    PUC = -3.944e-024 
    PUTE = -2.329e-015 
    PVOFF = -7.985e-016 
    TNOM =  298.1 
    CGSO = 1.209e-010 
    CGDO = 1.209e-010 
    CGBO =      0 
    XPART =      1 
    RSH =   10.5 
    JSS = 1.77e-007 
    JSWS = 4.23e-013 
    JSWGS = 9e-012 
    PBS =    0.5 
    MJS =   0.25 
    PBSWS =    0.8 
    MJSWS =   0.01 
    CJS = 0.00098 
    CJSWS = 4e-011 
    NJS =      1 
    PBSWGS =   0.78 
    MJSWGS =   0.52 
    CJSWGS = 3.7e-010 
    XTIS =      3 
    JSD = 1.77e-007 
    JSWD = 4.23e-013 
    JSWGD = 9e-012 
    PBD =    0.5 
    MJD =   0.25 
    PBSWD =    0.8 
    MJSWD =   0.01 
    CJD = 0.00098 
    CJSWD = 4e-011 
    NJD =      1 
    PBSWGD =   0.78 
    MJSWGD =   0.52 
    CJSWGD = 3.7e-010 
    XTID =      3 
    LMLT =      1 
    WMLT =      1 
    LINT = 2.5e-009 
    LL =      0 
    LLC =      0 
    LLN =      1 
    LW =      0 
    LWC =      0 
    LWN =      1 
    LWL =      0 
    LWLC =      0 
    LMIN = 2.4e-007 
    LMAX = 5e-007 
    WINT = 6e-009 
    WL =      0 
    WLC =      0 
    WLN =      1 
    WW =      0 
    WWC =      0 
    WWN =      1 
    WWL =      0 
    WWLC =      0 
    WMIN = 2.45e-007 
    WMAX = 5.05e-007 
    NOIA = 4.293e+041 
    NOIB = 1.612e+024 
    NOIC =   8.75 
    EM = 1.192e+007 
    EF = 0.8841 
    AF =      1 
    KF =      0 
    TRS =      0 
    TRD =      0 
    TEMPMOD  =      0 
    LAMBDA   =      0 
    VTL      = 2e+005 m/s
    LC       = 5e-009 
    XN       =      3 
    LLAMBDA  =      0 
    LVTL     =      0 
    LXN      =      0 
    WLAMBDA  =      0 
    WVTL     =      0 
    WXN      =      0 
    PLAMBDA  =      0 
    PVTL     =      0 
    PXN      =      0 
    RNOIA    =  0.577 
    RNOIB    = 0.5164 
    SAREF(SA0) = 6.3e-007 m
    SBREF(SB0) = 6.3e-007 m
    WLOD     = 8e-007 m
    KU0      = -7.36e-008 1/m
    KVSAT    =    0.2 
    KVTH0    = 3.5e-009 m
    TKU0     =   0.01 
    LLODKU0  =      1 
    WLODKU0  =      1 
    LLODVTH  =      1 
    WLODVTH  =      1 
    LKU0     = 4.027e-007 
    WKU0     = 8e-007 
    PKU0     = -2e-013 
    LKVTH0   = -2.68e-011 
    WKVTH0   = 1.5e-006 
    PKVTH0   =      0 
    STK2     = 1.35e-009 
    LODK2    =    0.5 
    STETA0   =      0 
    LODETA0  =      1 
    LXRCRG1  =      0 
    WXRCRG1  =      0 
    PXRCRG1  =      0 
    LXRCRG2  =      0 
    WXRCRG2  =      0 
    PXRCRG2  =      0 
     *** UCB's BSIM4.4.0 new diode model is activated. ***
    *** UCB's Diode Model Parameters ***
    JTSS         =      0 
    JTSSWS       =      0 
    JTSSWGS      =      0 
    JTSD         =      0 
    JTSSWD       =      0 
    JTSSWGD      =      0 
    NJTS         =     20 
    NJTSSW       =     20 
    NJTSSWG      =     20 
    XTSS         =   0.02 
    XTSSWS       =   0.02 
    XTSSWGS      =   0.02 
    XTSD         =   0.02 
    XTSSWD       =   0.02 
    XTSSWGD      =   0.02 
    TNJTS        =      0 
    TNJTSSW      =      0 
    TNJTSSWG     =      0 
    VFBSDOFF     =      0 
    LVFBSDOFF    =      0 
    WVFBSDOFF    =      0 
    PVFBSDOFF    =      0 
    LINTNOI      =      0 
    VTSS         =     10 
    VTSD         =     10 
    VTSSWS       =     10 
    VTSSWD       =     10 
    VTSSWGS      =     10 
    VTSSWGD      =     10 
    TTDIOMOD     =      1 
  

  **warning** the following singular supplies were terminated to 1 meg resistor 
          supply       node1            node2
(adder90nm.sp:12)va0                     0:a0               defined in subckt 0                     0:0                defined in subckt 0               
(adder90nm.sp:13)va1                     0:a1               defined in subckt 0                     0:0                defined in subckt 0               
(adder90nm.sp:14)va2                     0:a2               defined in subckt 0                     0:0                defined in subckt 0               
(adder90nm.sp:15)va3                     0:a3               defined in subckt 0                     0:0                defined in subckt 0               
(adder90nm.sp:17)vb0                     0:b0               defined in subckt 0                     0:0                defined in subckt 0               
(adder90nm.sp:18)vb1                     0:b1               defined in subckt 0                     0:0                defined in subckt 0               
(adder90nm.sp:19)vb2                     0:b2               defined in subckt 0                     0:0                defined in subckt 0               
(adder90nm.sp:20)vb3                     0:b3               defined in subckt 0                     0:0                defined in subckt 0               
(adder90nm.sp:22)vc0                     0:c0               defined in subckt 0                     0:0                defined in subckt 0               
(adder90nm.sp:10)vbb                     0:vddb             defined in subckt 0                     0:0                defined in subckt 0               
(adder90nm.sp:9)vdd                     0:vddd             defined in subckt 0                     0:0                defined in subckt 0               
             
 Warning:'No DC path nodes' occurs 9 times
 No DC path from the following nodes,connected with gdcpath:
 -----------------------
 |Node      |Subckt    |
 |----------+----------|
 |va0       |0         |
 |va1       |0         |
 |va2       |0         |
 |va3       |0         |
 |vb0       |0         |
 |vb1       |0         |
 |vb2       |0         |
 |vb3       |0         |
 |vc0       |0         |
 -----------------------
              
      
             
 Warning:'Floating bulk' occurs 1 times
 Summary of floating bulk:
 -----------------------
 |Node      |Device    |
 |----------+----------|
 |1         |mxa01     |
 -----------------------
              

 **warning** no dc outputs specified, analysis omitted

 **info** set option symb=1 internally to help for convergence.
 *****************************************************************
 ******  option summary
 ******
 runlvl  = 3         bypass  = 2.0000    
 **info** dc convergence successful at Newton-Raphson method 
1****** HSPICE -- L-2016.06-SP1 win64 (Aug 24 2016) ******                      
 ******  
 *****4 bit ripple adder 90 nm*****

 ****** operating point information tnom=  25.000 temp=  25.000 ******
 ****** operating point status is all       simulation time is     0.     
    node    =voltage      node    =voltage      node    =voltage

 +0:1       =   7.9686p 0:a0      =   5.0000  0:a1      =   0.     
 +0:a2      =   5.0000  0:a3      =   0.      0:aa0     =  17.0021p
 +0:aa1     =  17.0021p 0:aa2     =  17.0021p 0:aa3     =  17.0021p
 +0:b0      =   0.      0:b1      =   5.0000  0:b2      =   0.     
 +0:b3      =   5.0000  0:bb0     =  17.0018p 0:bb1     =  17.0018p
 +0:bb2     =  17.0018p 0:bb3     =  17.0018p 0:c0      =   5.0000 
 +0:c1      =   8.6012p 0:c2      =  14.6082p 0:c3      =   2.5889p
 +0:c4      =-419.6063f 0:cc0     =  13.9986p 0:f10     =-273.7017f
 +0:f11     =  -1.0776p 0:f12     =  -5.2151p 0:f13     =  -4.5860p
 +0:f2      =   1.8105p 0:f3      =   1.9559p 0:f4      =   2.0961p
 +0:f5      =  -1.2801p 0:f6      =-930.7570f 0:f7      = 524.0987f
 +0:f8      =  -1.8875p 0:f9      =  -2.4508p 0:g10     =-273.7023f
 +0:g11     =  -1.0776p 0:g12     =  -5.2151p 0:g13     =  -4.5860p
 +0:g2      =   1.8091p 0:g3      =   1.9542p 0:g4      =   2.0940p
 +0:g5      =  -1.2811p 0:g6      =-931.7891f 0:g7      = 524.0982f
 +0:g8      =  -1.8875p 0:g9      =  -2.4508p 0:h10     =-274.6921f
 +0:h11     =  -1.0790p 0:h12     =  -5.2159p 0:h13     =  -4.5866p
 +0:h2      =   1.8104p 0:h3      =   1.9560p 0:h4      =   2.0965p
 +0:h5      =  -1.2801p 0:h6      =-930.5690f 0:h7      = 523.5325f
 +0:h8      =  -1.8885p 0:h9      =  -2.4512p 0:n10     =-273.8021f
 +0:n11     =  -1.0777p 0:n12     =  -5.2152p 0:n13     =  -4.5861p
 +0:n2      =   1.8107p 0:n3      =   1.9563p 0:n4      =   2.0966p
 +0:n5      =  -1.2800p 0:n6      =-930.4861f 0:n7      = 524.0428f
 +0:n8      =  -1.8876p 0:n9      =  -2.4509p 0:s0      =-420.0371f
 +0:s1      =-420.0373f 0:s2      =-420.0370f 0:s3      =-420.0370f
 +0:va0     =  12.5805n 0:va1     =  12.5805n 0:va2     =  12.5805n
 +0:va3     =  12.5805n 0:vb0     =  12.5805n 0:vb1     =  12.5805n
 +0:vb2     =  12.5805n 0:vb3     =  12.5805n 0:vbb     =  13.9497p
 +0:vc0     =  12.5805n 0:vdd     =   1.5900p 0:vddb    =   5.0000 
 +0:vddd    =   5.0000  0:xa0     =   9.3440p 0:xa1     =   9.3440p
 +0:xa2     =   9.3440p 0:xa3     =   9.3440p 0:xb0     =   9.3440p
 +0:xb1     =   9.3440p 0:xb2     =   9.3440p 0:xb3     =   9.3440p
 +0:xc0     =   9.3437p


 **** voltage sources

 subckt                                                                    
 element  0:va0      0:va1      0:va2      0:va3      0:vb0      0:vb1     
  volts      5.0000     0.         5.0000     0.         0.         5.0000 
  current   -5.0000u    0.        -5.0000u    0.         0.        -5.0000u
  power     25.0000u    0.        25.0000u    0.         0.        25.0000u

 subckt                                                         
 element  0:vb2      0:vb3      0:vbb      0:vc0      0:vdd     
  volts      0.         5.0000     5.0000     5.0000     5.0000 
  current    0.        -5.0000u   -5.0000u   -5.0000u   -5.0000u
  power      0.        25.0000u   25.0000u   25.0000u   25.0000u

     total voltage source power dissipation=  175.0000u       watts




 **** mosfets


 subckt                                                                    
 element  0:mxa01    0:mxa02    0:mxa03    0:mxa04    0:mxa11    0:mxa12   
 model    0:pch.9    0:nch.15   0:pch.9    0:nch.15   0:pch.9    0:nch.15  
 region       Cutoff     Cutoff     Cutoff     Cutoff     Cutoff     Cutoff
  id       8.417e-20  2.200e-19 -5.578e-20  4.003e-19  8.417e-20  2.200e-19
  ibs     -1.376e-24    0.      -9.035e-24    0.      -1.376e-24    0.     
  ibd     -5.982e-24 -9.345e-24 -5.982e-24 -1.700e-23 -5.982e-24 -9.345e-24
  vgs       12.5711n   12.5805n   -7.6581p    9.3440p   12.5711n   12.5805n
  vds        4.6057p    9.3440p   -3.0524p   17.0021p    4.6057p    9.3440p
  vbs       -1.3754p    0.        -9.0335p    0.        -1.3754p    0.     
  vth     -244.0771m  287.1450m -244.0771m  287.1450m -244.0771m  287.1450m
  vdsat    -41.0796m   40.8500m  -41.0796m   40.8500m  -41.0796m   40.8500m
  vod      244.0771m -287.1450m  244.0771m -287.1450m  244.0771m -287.1450m
  beta     680.0073u  854.8379u  680.0073u  854.8379u  680.0073u  854.8379u
  gam eff  162.3000m  323.1000m  162.3000m  323.1000m  162.3000m  323.1000m
  gm         2.7120a    7.1136a    1.7973a   12.9438a    2.7120a    7.1136a
  gds       18.2756n   23.5468n   18.2756n   23.5468n   18.2756n   23.5468n
  gmb      3.848e-19    1.1763a  2.550e-19    2.1404a  3.848e-19    1.1763a
  cdtot      1.1225f  375.1821a    1.1247f  375.1821a    1.1225f  375.1821a
  cgtot      1.0219f  429.2603a    1.0219f  429.2603a    1.0219f  429.2603a
  cstot      1.1247f  371.3612a    1.1225f  371.3612a    1.1247f  371.3612a
  cbtot      1.7505f  667.0290a    1.7505f  667.0290a    1.7505f  667.0290a
  cgs      377.8702a  123.0344a  371.6813a  123.0344a  377.8702a  123.0344a
  cgd      371.6813a  125.1327a  377.8702a  125.1327a  371.6813a  125.1327a



 subckt                                                                    
 element  0:mxa13    0:mxa14    0:mxa21    0:mxa22    0:mxa23    0:mxa24   
 model    0:pch.9    0:nch.15   0:pch.9    0:nch.15   0:pch.9    0:nch.15  
 region       Cutoff     Cutoff     Cutoff     Cutoff     Cutoff     Cutoff
  id      -5.578e-20  4.003e-19  8.417e-20  2.200e-19 -5.578e-20  4.003e-19
  ibs     -9.035e-24    0.      -1.376e-24    0.      -9.035e-24    0.     
  ibd     -5.982e-24 -1.700e-23 -5.982e-24 -9.345e-24 -5.982e-24 -1.700e-23
  vgs       -7.6581p    9.3440p   12.5711n   12.5805n   -7.6581p    9.3440p
  vds       -3.0524p   17.0021p    4.6057p    9.3440p   -3.0524p   17.0021p
  vbs       -9.0335p    0.        -1.3754p    0.        -9.0335p    0.     
  vth     -244.0771m  287.1450m -244.0771m  287.1450m -244.0771m  287.1450m
  vdsat    -41.0796m   40.8500m  -41.0796m   40.8500m  -41.0796m   40.8500m
  vod      244.0771m -287.1450m  244.0771m -287.1450m  244.0771m -287.1450m
  beta     680.0073u  854.8379u  680.0073u  854.8379u  680.0073u  854.8379u
  gam eff  162.3000m  323.1000m  162.3000m  323.1000m  162.3000m  323.1000m
  gm         1.7973a   12.9438a    2.7120a    7.1136a    1.7973a   12.9438a
  gds       18.2756n   23.5468n   18.2756n   23.5468n   18.2756n   23.5468n
  gmb      2.550e-19    2.1404a  3.848e-19    1.1763a  2.550e-19    2.1404a
  cdtot      1.1247f  375.1821a    1.1225f  375.1821a    1.1247f  375.1821a
  cgtot      1.0219f  429.2603a    1.0219f  429.2603a    1.0219f  429.2603a
  cstot      1.1225f  371.3612a    1.1247f  371.3612a    1.1225f  371.3612a
  cbtot      1.7505f  667.0290a    1.7505f  667.0290a    1.7505f  667.0290a
  cgs      371.6813a  123.0344a  377.8702a  123.0344a  371.6813a  123.0344a
  cgd      377.8702a  125.1327a  371.6813a  125.1327a  377.8702a  125.1327a



 subckt                                                                    
 element  0:mxa31    0:mxa32    0:mxa33    0:mxa34    0:mxb01    0:mxb02   
 model    0:pch.9    0:nch.15   0:pch.9    0:nch.15   0:pch.9    0:nch.15  
 region       Cutoff     Cutoff     Cutoff     Cutoff     Cutoff     Cutoff
  id       8.417e-20  2.200e-19 -5.578e-20  4.003e-19  8.417e-20  2.200e-19
  ibs     -1.376e-24    0.      -9.035e-24    0.      -1.376e-24    0.     
  ibd     -5.982e-24 -9.345e-24 -5.982e-24 -1.700e-23 -5.982e-24 -9.345e-24
  vgs       12.5711n   12.5805n   -7.6581p    9.3440p   12.5711n   12.5805n
  vds        4.6057p    9.3440p   -3.0524p   17.0021p    4.6057p    9.3440p
  vbs       -1.3754p    0.        -9.0334p    0.        -1.3754p    0.     
  vth     -244.0771m  287.1450m -244.0771m  287.1450m -244.0771m  287.1450m
  vdsat    -41.0796m   40.8500m  -41.0796m   40.8500m  -41.0796m   40.8500m
  vod      244.0771m -287.1450m  244.0771m -287.1450m  244.0771m -287.1450m
  beta     680.0073u  854.8379u  680.0073u  854.8379u  680.0073u  854.8379u
  gam eff  162.3000m  323.1000m  162.3000m  323.1000m  162.3000m  323.1000m
  gm         2.7120a    7.1136a    1.7973a   12.9438a    2.7120a    7.1136a
  gds       18.2756n   23.5468n   18.2756n   23.5468n   18.2756n   23.5468n
  gmb      3.848e-19    1.1763a  2.550e-19    2.1404a  3.848e-19    1.1763a
  cdtot      1.1225f  375.1821a    1.1247f  375.1821a    1.1225f  375.1821a
  cgtot      1.0219f  429.2603a    1.0219f  429.2603a    1.0219f  429.2603a
  cstot      1.1247f  371.3612a    1.1225f  371.3612a    1.1247f  371.3612a
  cbtot      1.7505f  667.0290a    1.7505f  667.0290a    1.7505f  667.0290a
  cgs      377.8702a  123.0344a  371.6813a  123.0344a  377.8702a  123.0344a
  cgd      371.6813a  125.1327a  377.8702a  125.1327a  371.6813a  125.1327a



 subckt                                                                    
 element  0:mxb03    0:mxb04    0:mxb11    0:mxb12    0:mxb13    0:mxb14   
 model    0:pch.9    0:nch.15   0:pch.9    0:nch.15   0:pch.9    0:nch.15  
 region       Cutoff     Cutoff     Cutoff     Cutoff     Cutoff     Cutoff
  id      -5.578e-20  4.003e-19  8.417e-20  2.200e-19 -5.578e-20  4.003e-19
  ibs     -9.035e-24    0.      -1.376e-24    0.      -9.035e-24    0.     
  ibd     -5.982e-24 -1.700e-23 -5.982e-24 -9.345e-24 -5.982e-24 -1.700e-23
  vgs       -7.6578p    9.3440p   12.5711n   12.5805n   -7.6578p    9.3440p
  vds       -3.0521p   17.0018p    4.6057p    9.3440p   -3.0521p   17.0018p
  vbs       -9.0332p    0.        -1.3754p    0.        -9.0332p    0.     
  vth     -244.0771m  287.1450m -244.0771m  287.1450m -244.0771m  287.1450m
  vdsat    -41.0796m   40.8500m  -41.0796m   40.8500m  -41.0796m   40.8500m
  vod      244.0771m -287.1450m  244.0771m -287.1450m  244.0771m -287.1450m
  beta     680.0073u  854.8379u  680.0073u  854.8379u  680.0073u  854.8379u
  gam eff  162.3000m  323.1000m  162.3000m  323.1000m  162.3000m  323.1000m
  gm         1.7971a   12.9436a    2.7120a    7.1136a    1.7971a   12.9436a
  gds       18.2756n   23.5468n   18.2756n   23.5468n   18.2756n   23.5468n
  gmb      2.550e-19    2.1403a  3.848e-19    1.1763a  2.550e-19    2.1403a
  cdtot      1.1247f  375.1821a    1.1225f  375.1821a    1.1247f  375.1821a
  cgtot      1.0219f  429.2603a    1.0219f  429.2603a    1.0219f  429.2603a
  cstot      1.1225f  371.3612a    1.1247f  371.3612a    1.1225f  371.3612a
  cbtot      1.7505f  667.0290a    1.7505f  667.0290a    1.7505f  667.0290a
  cgs      371.6813a  123.0344a  377.8702a  123.0344a  371.6813a  123.0344a
  cgd      377.8702a  125.1327a  371.6813a  125.1327a  377.8702a  125.1327a



 subckt                                                                    
 element  0:mxb21    0:mxb22    0:mxb23    0:mxb24    0:mxb31    0:mxb32   
 model    0:pch.9    0:nch.15   0:pch.9    0:nch.15   0:pch.9    0:nch.15  
 region       Cutoff     Cutoff     Cutoff     Cutoff     Cutoff     Cutoff
  id       8.417e-20  2.200e-19 -5.578e-20  4.003e-19  8.417e-20  2.200e-19
  ibs     -1.376e-24    0.      -9.035e-24    0.      -1.376e-24    0.     
  ibd     -5.982e-24 -9.345e-24 -5.982e-24 -1.700e-23 -5.982e-24 -9.345e-24
  vgs       12.5711n   12.5805n   -7.6578p    9.3440p   12.5711n   12.5805n
  vds        4.6057p    9.3440p   -3.0521p   17.0018p    4.6057p    9.3440p
  vbs       -1.3754p    0.        -9.0332p    0.        -1.3754p    0.     
  vth     -244.0771m  287.1450m -244.0771m  287.1450m -244.0771m  287.1450m
  vdsat    -41.0796m   40.8500m  -41.0796m   40.8500m  -41.0796m   40.8500m
  vod      244.0771m -287.1450m  244.0771m -287.1450m  244.0771m -287.1450m
  beta     680.0073u  854.8379u  680.0073u  854.8379u  680.0073u  854.8379u
  gam eff  162.3000m  323.1000m  162.3000m  323.1000m  162.3000m  323.1000m
  gm         2.7120a    7.1136a    1.7971a   12.9436a    2.7120a    7.1136a
  gds       18.2756n   23.5468n   18.2756n   23.5468n   18.2756n   23.5468n
  gmb      3.848e-19    1.1763a  2.550e-19    2.1403a  3.848e-19    1.1763a
  cdtot      1.1225f  375.1821a    1.1247f  375.1821a    1.1225f  375.1821a
  cgtot      1.0219f  429.2603a    1.0219f  429.2603a    1.0219f  429.2603a
  cstot      1.1247f  371.3612a    1.1225f  371.3612a    1.1247f  371.3612a
  cbtot      1.7505f  667.0290a    1.7505f  667.0290a    1.7505f  667.0290a
  cgs      377.8702a  123.0344a  371.6813a  123.0344a  377.8702a  123.0344a
  cgd      371.6813a  125.1327a  377.8702a  125.1327a  371.6813a  125.1327a



 subckt                                                                    
 element  0:mxb33    0:mxb34    0:mxc01    0:mxc02    0:mxc03    0:mxc04   
 model    0:pch.9    0:nch.15   0:pch.9    0:nch.15   0:pch.9    0:nch.15  
 region       Cutoff     Cutoff     Cutoff     Cutoff     Cutoff     Cutoff
  id      -5.578e-20  4.003e-19  8.418e-20  2.200e-19 -8.935e-22  3.296e-19
  ibs     -9.035e-24    0.      -1.375e-24    0.      -6.031e-24    0.     
  ibd     -5.982e-24 -1.700e-23 -5.982e-24 -9.345e-24 -5.982e-24 -1.400e-23
  vgs       -7.6578p    9.3440p   12.5711n   12.5805n   -4.6549p    9.3437p
  vds       -3.0521p   17.0018p    4.6061p    9.3437p  -48.8908f   13.9986p
  vbs       -9.0332p    0.        -1.3750p    0.        -6.0300p    0.     
  vth     -244.0771m  287.1450m -244.0771m  287.1450m -244.0771m  287.1450m
  vdsat    -41.0796m   40.8500m  -41.0796m   40.8500m  -41.0796m   40.8500m
  vod      244.0771m -287.1450m  244.0771m -287.1450m  244.0771m -287.1450m
  beta     680.0073u  854.8379u  680.0073u  854.8379u  680.0073u  854.8379u
  gam eff  162.3000m  323.1000m  162.3000m  323.1000m  162.3000m  323.1000m
  gm         1.7971a   12.9436a    2.7122a    7.1134a  2.879e-20   10.6572a
  gds       18.2756n   23.5468n   18.2756n   23.5468n   18.2756n   23.5468n
  gmb      2.550e-19    2.1403a  3.848e-19    1.1763a  4.085e-21    1.7623a
  cdtot      1.1247f  375.1821a    1.1225f  375.1821a    1.1247f  375.1821a
  cgtot      1.0219f  429.2603a    1.0219f  429.2603a    1.0219f  429.2603a
  cstot      1.1225f  371.3612a    1.1247f  371.3612a    1.1225f  371.3612a
  cbtot      1.7505f  667.0290a    1.7505f  667.0290a    1.7505f  667.0290a
  cgs      371.6813a  123.0344a  377.8702a  123.0344a  371.6813a  123.0344a
  cgd      377.8702a  125.1327a  371.6813a  125.1327a  377.8702a  125.1327a



 subckt                                                                    
 element  0:ma01     0:mb01     0:ma02     0:mb02     0:mc01     0:mc02    
 model    0:pch.9    0:pch.9    0:pch.9    0:pch.9    0:pch.9    0:nch.15  
 region       Cutoff     Cutoff     Cutoff     Cutoff     Cutoff     Cutoff
  id      -4.034e-21 -4.034e-21 -2.660e-21 -2.565e-21 -5.225e-21  7.951e-20
  ibs      6.159e-24  6.159e-24  6.013e-24  5.873e-24  5.873e-24  1.280e-24
  ibd      6.380e-24  6.380e-24  6.159e-24  6.013e-24  6.159e-24 -2.097e-24
  vgs       15.1914p   15.1911p   15.0458p   14.9051p   11.9020p   15.2786p
  vds     -220.7479f -220.7479f -145.5497f -140.3671f -285.9168f    3.3766p
  vbs        6.1579p    6.1579p    6.0124p    5.8720p    5.8720p    1.2800p
  vth     -244.0771m -244.0771m -244.0771m -244.0771m -244.0771m  287.1450m
  vdsat    -41.0796m  -41.0796m  -41.0796m  -41.0796m  -41.0796m   40.8500m
  vod      244.0771m  244.0771m  244.0771m  244.0771m  244.0771m -287.1450m
  beta     680.0073u  680.0073u  680.0073u  680.0073u  680.0073u  854.8379u
  gam eff  162.3000m  162.3000m  162.3000m  162.3000m  162.3000m  323.1000m
  gm       1.300e-19  1.300e-19  8.571e-20  8.265e-20  1.684e-19    2.5706a
  gds       18.2756n   18.2756n   18.2756n   18.2756n   18.2756n   23.5468n
  gmb      1.844e-20  1.844e-20  1.216e-20  1.173e-20  2.389e-20  4.251e-19
  cdtot      1.1247f    1.1247f    1.1247f    1.1247f    1.1247f  375.1821a
  cgtot      1.0219f    1.0219f    1.0219f    1.0219f    1.0219f  429.2603a
  cstot      1.1225f    1.1225f    1.1225f    1.1225f    1.1225f  371.3612a
  cbtot      1.7505f    1.7505f    1.7505f    1.7505f    1.7505f  667.0290a
  cgs      371.6813a  371.6813a  371.6813a  371.6813a  371.6813a  123.0344a
  cgd      377.8702a  377.8702a  377.8702a  377.8702a  377.8702a  125.1327a



 subckt                                                                    
 element  0:ma03     0:mb03     0:ma04     0:mb04     0:md01     0:md02    
 model    0:nch.15   0:nch.15   0:nch.15   0:nch.15   0:pch.9    0:nch.15  
 region       Cutoff     Cutoff     Cutoff     Cutoff     Cutoff     Cutoff
  id      -3.014e-20 -3.014e-20  7.128e-20 -2.191e-20 -1.281e-19  2.025e-19
  ibs        0.         0.       9.306e-25    0.      -6.326e-25    0.     
  ibd      1.280e-24  1.280e-24 -2.097e-24  9.306e-25  6.380e-24 -8.602e-24
  vgs       17.0021p   17.0018p   17.9326p   17.0018p   -6.5045p    2.0966p
  vds       -1.2800p   -1.2800p    3.0271p -930.4861f   -7.0112p    8.6012p
  vbs        0.         0.       930.4861f    0.      -632.5453f    0.     
  vth      287.1450m  287.1450m  287.1450m  287.1450m -244.0771m  287.1450m
  vdsat     40.8500m   40.8500m   40.8500m   40.8500m  -41.0796m   40.8500m
  vod     -287.1450m -287.1450m -287.1450m -287.1450m  244.0771m -287.1450m
  beta     854.8379u  854.8379u  854.8379u  854.8379u  680.0073u  854.8379u
  gam eff  323.1000m  323.1000m  323.1000m  323.1000m  162.3000m  323.1000m
  gm       9.744e-19  9.744e-19    2.3046a  7.084e-19    4.1284a    6.5481a
  gds       23.5468n   23.5468n   23.5468n   23.5468n   18.2756n   23.5468n
  gmb      1.611e-19  1.611e-19  3.811e-19  1.171e-19  5.857e-19    1.0828a
  cdtot    371.3612a  371.3612a  375.1821a  371.3612a    1.1247f  375.1821a
  cgtot    429.2603a  429.2603a  429.2603a  429.2603a    1.0219f  429.2603a
  cstot    375.1821a  375.1821a  371.3612a  375.1821a    1.1225f  371.3612a
  cbtot    667.0290a  667.0290a  667.0290a  667.0290a    1.7505f  667.0290a
  cgs      125.1327a  125.1327a  123.0344a  125.1327a  371.6813a  123.0344a
  cgd      123.0344a  123.0344a  125.1327a  123.0344a  377.8702a  125.1327a



 subckt                                                                    
 element  0:ma05     0:mb05     0:mc03     0:ma06     0:mb06     0:mc04    
 model    0:pch.9    0:pch.9    0:pch.9    0:pch.9    0:pch.9    0:pch.9   
 region       Cutoff     Cutoff     Cutoff     Cutoff     Cutoff     Cutoff
  id       1.948e-20  1.948e-20  1.948e-20  1.458e-20  1.469e-20  1.480e-20
  ibs      7.446e-24  7.446e-24  7.446e-24  8.244e-24  9.048e-24  9.858e-24
  ibd      6.380e-24  6.380e-24  6.380e-24  7.446e-24  8.244e-24  9.048e-24
  vgs       16.4780p   16.4778p   13.4746p   17.2759p   18.0795p   15.8862p
  vds        1.0659p    1.0659p    1.0659p  797.8449f  803.9340f  809.9055f
  vbs        7.4446p    7.4446p    7.4446p    8.2424p    9.0464p    9.8563p
  vth     -244.0771m -244.0771m -244.0771m -244.0771m -244.0771m -244.0771m
  vdsat    -41.0796m  -41.0796m  -41.0796m  -41.0796m  -41.0796m  -41.0796m
  vod      244.0771m  244.0771m  244.0771m  244.0771m  244.0771m  244.0771m
  beta     680.0073u  680.0073u  680.0073u  680.0073u  680.0073u  680.0073u
  gam eff  162.3000m  162.3000m  162.3000m  162.3000m  162.3000m  162.3000m
  gm       6.277e-19  6.277e-19  6.277e-19  4.698e-19  4.734e-19  4.769e-19
  gds       18.2756n   18.2756n   18.2756n   18.2756n   18.2756n   18.2756n
  gmb      8.905e-20  8.905e-20  8.905e-20  6.665e-20  6.716e-20  6.766e-20
  cdtot      1.1225f    1.1225f    1.1225f    1.1225f    1.1225f    1.1225f
  cgtot      1.0219f    1.0219f    1.0219f    1.0219f    1.0219f    1.0219f
  cstot      1.1247f    1.1247f    1.1247f    1.1247f    1.1247f    1.1247f
  cbtot      1.7505f    1.7505f    1.7505f    1.7505f    1.7505f    1.7505f
  cgs      377.8702a  377.8702a  377.8702a  377.8702a  377.8702a  377.8702a
  cgd      371.6813a  371.6813a  371.6813a  371.6813a  371.6813a  371.6813a



 subckt                                                                    
 element  0:md03     0:md04     0:ma07     0:mb07     0:mc05     0:ma08    
 model    0:pch.9    0:nch.15   0:nch.15   0:nch.15   0:nch.15   0:nch.15  
 region       Cutoff     Cutoff     Cutoff     Cutoff     Cutoff     Cutoff
  id       4.407e-20  1.326e-20 -5.771e-20 -5.771e-20 -5.771e-20  7.835e-20
  ibs      9.858e-24  2.451e-24    0.         0.         0.       5.216e-24
  ibd      7.446e-24  1.888e-24  2.451e-24  2.451e-24  2.451e-24  1.888e-24
  vgs        3.9843p    4.5475p   17.0021p   17.0018p   13.9986p   22.2172p
  vds        2.4117p  563.2324f   -2.4509p   -2.4509p   -2.4509p    3.3275p
  vbs        9.8563p    2.4509p    0.         0.         0.         5.2152p
  vth     -244.0771m  287.1450m  287.1450m  287.1450m  287.1450m  287.1450m
  vdsat    -41.0796m   40.8500m   40.8500m   40.8500m   40.8500m   40.8500m
  vod      244.0771m -287.1450m -287.1450m -287.1450m -287.1450m -287.1450m
  beta     680.0073u  854.8379u  854.8379u  854.8379u  854.8379u  854.8379u
  gam eff  162.3000m  323.1000m  323.1000m  323.1000m  323.1000m  323.1000m
  gm         1.4201a  4.288e-19    1.8659a    1.8659a    1.8659a    2.5333a
  gds       18.2756n   23.5468n   23.5468n   23.5468n   23.5468n   23.5468n
  gmb      2.015e-19  7.090e-20  3.085e-19  3.085e-19  3.085e-19  4.189e-19
  cdtot      1.1225f  375.1821a  371.3612a  371.3612a  371.3612a  375.1821a
  cgtot      1.0219f  429.2603a  429.2603a  429.2603a  429.2603a  429.2603a
  cstot      1.1247f  371.3612a  375.1821a  375.1821a  375.1821a  371.3612a
  cbtot      1.7505f  667.0290a  667.0290a  667.0290a  667.0290a  667.0290a
  cgs      377.8702a  123.0344a  125.1327a  125.1327a  125.1327a  123.0344a
  cgd      371.6813a  125.1327a  123.0344a  123.0344a  123.0344a  125.1327a



 subckt                                                                    
 element  0:mb08     0:mc06     0:md05     0:md06     0:ma11     0:mb11    
 model    0:nch.15   0:nch.15   0:pch.9    0:nch.15   0:pch.9    0:pch.9   
 region       Cutoff     Cutoff     Cutoff     Cutoff     Cutoff     Cutoff
  id      -1.481e-20 -1.080e-19  3.673e-20 -9.891e-21 -4.029e-21 -4.029e-21
  ibs      4.587e-24    0.       8.390e-24    0.       6.159e-24  6.159e-24
  ibd      5.216e-24  4.587e-24  6.380e-24  4.201e-25  6.380e-24  6.380e-24
  vgs       21.5879p   13.9986p   -1.4676p   -1.8876p   15.1917p   15.1914p
  vds     -629.0835f   -4.5861p    2.0100p -420.0371f -220.4451f -220.4451f
  vbs        4.5861p    0.         8.3887p    0.         6.1582p    6.1582p
  vth      287.1450m  287.1450m -244.0771m  287.1450m -244.0771m -244.0771m
  vdsat     40.8500m   40.8500m  -41.0796m   40.8500m  -41.0796m  -41.0796m
  vod     -287.1450m -287.1450m  244.0771m -287.1450m  244.0771m  244.0771m
  beta     854.8379u  854.8379u  680.0073u  854.8379u  680.0073u  680.0073u
  gam eff  323.1000m  323.1000m  162.3000m  323.1000m  162.3000m  162.3000m
  gm       4.789e-19    3.4914a    1.1836a  3.198e-19  1.298e-19  1.298e-19
  gds       23.5468n   23.5468n   18.2756n   23.5468n   18.2756n   18.2756n
  gmb      7.919e-20  5.773e-19  1.679e-19  5.288e-20  1.842e-20  1.842e-20
  cdtot    371.3612a  371.3612a    1.1225f  371.3612a    1.1247f    1.1247f
  cgtot    429.2603a  429.2603a    1.0219f  429.2603a    1.0219f    1.0219f
  cstot    375.1821a  375.1821a    1.1247f  375.1821a    1.1225f    1.1225f
  cbtot    667.0290a  667.0290a    1.7505f  667.0290a    1.7505f    1.7505f
  cgs      125.1327a  125.1327a  377.8702a  125.1327a  371.6813a  371.6813a
  cgd      123.0344a  123.0344a  371.6813a  123.0344a  377.8702a  377.8702a



 subckt                                                                    
 element  0:ma12     0:mb12     0:mc11     0:mc12     0:ma13     0:mb13    
 model    0:pch.9    0:pch.9    0:pch.9    0:nch.15   0:nch.15   0:nch.15  
 region       Cutoff     Cutoff     Cutoff     Cutoff     Cutoff     Cutoff
  id      -2.661e-21 -2.567e-21 -5.228e-21  7.951e-20 -3.014e-20 -3.014e-20
  ibs      6.014e-24  5.873e-24  5.873e-24  1.280e-24    0.         0.     
  ibd      6.159e-24  6.014e-24  6.159e-24 -2.097e-24  1.280e-24  1.280e-24
  vgs       15.0460p   14.9053p    6.5047p    9.8813p   17.0021p   17.0018p
  vds     -145.6223f -140.4395f -286.0618f    3.3766p   -1.2801p   -1.2801p
  vbs        6.0126p    5.8721p    5.8721p    1.2801p    0.         0.     
  vth     -244.0771m -244.0771m -244.0771m  287.1450m  287.1450m  287.1450m
  vdsat    -41.0796m  -41.0796m  -41.0796m   40.8500m   40.8500m   40.8500m
  vod      244.0771m  244.0771m  244.0771m -287.1450m -287.1450m -287.1450m
  beta     680.0073u  680.0073u  680.0073u  854.8379u  854.8379u  854.8379u
  gam eff  162.3000m  162.3000m  162.3000m  323.1000m  323.1000m  323.1000m
  gm       8.574e-20  8.269e-20  1.684e-19    2.5707a  9.746e-19  9.746e-19
  gds       18.2756n   18.2756n   18.2756n   23.5468n   23.5468n   23.5468n
  gmb      1.216e-20  1.173e-20  2.390e-20  4.251e-19  1.612e-19  1.612e-19
  cdtot      1.1247f    1.1247f    1.1247f  375.1821a  371.3612a  371.3612a
  cgtot      1.0219f    1.0219f    1.0219f  429.2603a  429.2603a  429.2603a
  cstot      1.1225f    1.1225f    1.1225f  371.3612a  375.1821a  375.1821a
  cbtot      1.7505f    1.7505f    1.7505f  667.0290a  667.0290a  667.0290a
  cgs      371.6813a  371.6813a  371.6813a  123.0344a  125.1327a  125.1327a
  cgd      377.8702a  377.8702a  377.8702a  125.1327a  123.0344a  123.0344a



 subckt                                                                    
 element  0:ma14     0:mb14     0:md11     0:md12     0:ma15     0:mb15    
 model    0:nch.15   0:nch.15   0:pch.9    0:nch.15   0:pch.9    0:pch.9   
 region       Cutoff     Cutoff     Cutoff     Cutoff     Cutoff     Cutoff
  id       7.128e-20 -2.191e-20 -2.379e-19  3.440e-19  1.949e-20  1.949e-20
  ibs      9.307e-25    0.      -6.641e-24    0.       7.446e-24  7.446e-24
  ibd     -2.097e-24  9.307e-25  6.380e-24 -1.461e-23  6.380e-24  6.380e-24
  vgs       17.9327p   17.0018p  -12.5118p    2.0965p   16.4786p   16.4783p
  vds        3.0271p -930.5690f  -13.0183p   14.6082p    1.0664p    1.0664p
  vbs      930.5690f    0.        -6.6396p    0.         7.4451p    7.4451p
  vth      287.1450m  287.1450m -244.0771m  287.1450m -244.0771m -244.0771m
  vdsat     40.8500m   40.8500m  -41.0796m   40.8500m  -41.0796m  -41.0796m
  vod     -287.1450m -287.1450m  244.0771m -287.1450m  244.0771m  244.0771m
  beta     854.8379u  854.8379u  680.0073u  854.8379u  680.0073u  680.0073u
  gam eff  323.1000m  323.1000m  162.3000m  323.1000m  162.3000m  162.3000m
  gm         2.3045a  7.084e-19    7.6655a   11.1213a  6.280e-19  6.280e-19
  gds       23.5468n   23.5468n   18.2756n   23.5468n   18.2756n   18.2756n
  gmb      3.811e-19  1.171e-19    1.0875a    1.8390a  8.909e-20  8.909e-20
  cdtot    375.1821a  371.3612a    1.1247f  375.1821a    1.1225f    1.1225f
  cgtot    429.2603a  429.2603a    1.0219f  429.2603a    1.0219f    1.0219f
  cstot    371.3612a  375.1821a    1.1225f  371.3612a    1.1247f    1.1247f
  cbtot    667.0290a  667.0290a    1.7505f  667.0290a    1.7505f    1.7505f
  cgs      123.0344a  125.1327a  371.6813a  123.0344a  377.8702a  377.8702a
  cgd      125.1327a  123.0344a  377.8702a  125.1327a  371.6813a  371.6813a



 subckt                                                                    
 element  0:mc13     0:ma16     0:mb16     0:mc14     0:md13     0:md14    
 model    0:pch.9    0:pch.9    0:pch.9    0:pch.9    0:pch.9    0:nch.15  
 region       Cutoff     Cutoff     Cutoff     Cutoff     Cutoff     Cutoff
  id       1.949e-20  1.459e-20  1.470e-20  1.479e-20  4.408e-20  1.325e-20
  ibs      7.446e-24  8.245e-24  9.049e-24  9.859e-24  9.859e-24  2.452e-24
  ibd      6.380e-24  7.446e-24  8.245e-24  9.049e-24  7.446e-24  1.889e-24
  vgs        8.0776p   17.2768p   18.0808p   10.4897p    3.9850p    4.5477p
  vds        1.0664p  798.2245f  804.3147f  809.4844f    2.4120p  562.6998f
  vbs        7.4451p    8.2433p    9.0476p    9.8571p    9.8571p    2.4512p
  vth     -244.0771m -244.0771m -244.0771m -244.0771m -244.0771m  287.1450m
  vdsat    -41.0796m  -41.0796m  -41.0796m  -41.0796m  -41.0796m   40.8500m
  vod      244.0771m  244.0771m  244.0771m  244.0771m  244.0771m -287.1450m
  beta     680.0073u  680.0073u  680.0073u  680.0073u  680.0073u  854.8379u
  gam eff  162.3000m  162.3000m  162.3000m  162.3000m  162.3000m  323.1000m
  gm       6.280e-19  4.700e-19  4.736e-19  4.766e-19    1.4203a  4.284e-19
  gds       18.2756n   18.2756n   18.2756n   18.2756n   18.2756n   23.5468n
  gmb      8.909e-20  6.668e-20  6.719e-20  6.762e-20  2.015e-19  7.084e-20
  cdtot      1.1225f    1.1225f    1.1225f    1.1225f    1.1225f  375.1821a
  cgtot      1.0219f    1.0219f    1.0219f    1.0219f    1.0219f  429.2603a
  cstot      1.1247f    1.1247f    1.1247f    1.1247f    1.1247f  371.3612a
  cbtot      1.7505f    1.7505f    1.7505f    1.7505f    1.7505f  667.0290a
  cgs      377.8702a  377.8702a  377.8702a  377.8702a  377.8702a  123.0344a
  cgd      371.6813a  371.6813a  371.6813a  371.6813a  371.6813a  125.1327a



 subckt                                                                    
 element  0:ma17     0:mb17     0:mc15     0:ma18     0:mb18     0:mc16    
 model    0:nch.15   0:nch.15   0:nch.15   0:nch.15   0:nch.15   0:nch.15  
 region       Cutoff     Cutoff     Cutoff     Cutoff     Cutoff     Cutoff
  id      -5.772e-20 -5.772e-20 -5.772e-20  7.835e-20 -1.482e-20 -1.080e-19
  ibs        0.         0.         0.       5.217e-24  4.587e-24    0.     
  ibd      2.452e-24  2.452e-24  2.452e-24  1.889e-24  5.217e-24  4.587e-24
  vgs       17.0021p   17.0018p    8.6012p   22.2180p   21.5884p    8.6012p
  vds       -2.4512p   -2.4512p   -2.4512p    3.3274p -629.2407f   -4.5866p
  vbs        0.         0.         0.         5.2159p    4.5866p    0.     
  vth      287.1450m  287.1450m  287.1450m  287.1450m  287.1450m  287.1450m
  vdsat     40.8500m   40.8500m   40.8500m   40.8500m   40.8500m   40.8500m
  vod     -287.1450m -287.1450m -287.1450m -287.1450m -287.1450m -287.1450m
  beta     854.8379u  854.8379u  854.8379u  854.8379u  854.8379u  854.8379u
  gam eff  323.1000m  323.1000m  323.1000m  323.1000m  323.1000m  323.1000m
  gm         1.8661a    1.8661a    1.8661a    2.5332a  4.790e-19    3.4918a
  gds       23.5468n   23.5468n   23.5468n   23.5468n   23.5468n   23.5468n
  gmb      3.086e-19  3.086e-19  3.086e-19  4.189e-19  7.921e-20  5.774e-19
  cdtot    371.3612a  371.3612a  371.3612a  375.1821a  371.3612a  371.3612a
  cgtot    429.2603a  429.2603a  429.2603a  429.2603a  429.2603a  429.2603a
  cstot    375.1821a  375.1821a  375.1821a  371.3612a  375.1821a  375.1821a
  cbtot    667.0290a  667.0290a  667.0290a  667.0290a  667.0290a  667.0290a
  cgs      125.1327a  125.1327a  125.1327a  123.0344a  125.1327a  125.1327a
  cgd      123.0344a  123.0344a  123.0344a  125.1327a  123.0344a  123.0344a



 subckt                                                                    
 element  0:md15     0:md16     0:ma21     0:mb21     0:ma22     0:mb22    
 model    0:pch.9    0:nch.15   0:pch.9    0:pch.9    0:pch.9    0:pch.9   
 region       Cutoff     Cutoff     Cutoff     Cutoff     Cutoff     Cutoff
  id       3.673e-20 -9.891e-21 -4.031e-21 -4.031e-21 -2.657e-21 -2.562e-21
  ibs      8.390e-24    0.       6.159e-24  6.159e-24  6.014e-24  5.873e-24
  ibd      6.380e-24  4.201e-25  6.380e-24  6.380e-24  6.159e-24  6.014e-24
  vgs       -1.4685p   -1.8885p   15.1916p   15.1913p   15.0462p   14.9057p
  vds        2.0100p -420.0373f -220.5442f -220.5442f -145.3807f -140.1977f
  vbs        8.3887p    0.         6.1581p    6.1581p    6.0127p    5.8725p
  vth     -244.0771m  287.1450m -244.0771m -244.0771m -244.0771m -244.0771m
  vdsat    -41.0796m   40.8500m  -41.0796m  -41.0796m  -41.0796m  -41.0796m
  vod      244.0771m -287.1450m  244.0771m  244.0771m  244.0771m  244.0771m
  beta     680.0073u  854.8379u  680.0073u  680.0073u  680.0073u  680.0073u
  gam eff  162.3000m  323.1000m  162.3000m  162.3000m  162.3000m  162.3000m
  gm         1.1836a  3.198e-19  1.299e-19  1.299e-19  8.560e-20  8.255e-20
  gds       18.2756n   23.5468n   18.2756n   18.2756n   18.2756n   18.2756n
  gmb      1.679e-19  5.288e-20  1.842e-20  1.842e-20  1.214e-20  1.171e-20
  cdtot      1.1225f  371.3612a    1.1247f    1.1247f    1.1247f    1.1247f
  cgtot      1.0219f  429.2603a    1.0219f    1.0219f    1.0219f    1.0219f
  cstot      1.1247f  375.1821a    1.1225f    1.1225f    1.1225f    1.1225f
  cbtot      1.7505f  667.0290a    1.7505f    1.7505f    1.7505f    1.7505f
  cgs      377.8702a  125.1327a  371.6813a  371.6813a  371.6813a  371.6813a
  cgd      371.6813a  123.0344a  377.8702a  377.8702a  377.8702a  377.8702a



 subckt                                                                    
 element  0:mc21     0:mc22     0:ma23     0:mb23     0:ma24     0:mb24    
 model    0:pch.9    0:nch.15   0:nch.15   0:nch.15   0:nch.15   0:nch.15  
 region       Cutoff     Cutoff     Cutoff     Cutoff     Cutoff     Cutoff
  id      -5.219e-21  7.950e-20 -3.014e-20 -3.014e-20  7.127e-20 -2.192e-20
  ibs      5.873e-24  1.280e-24    0.         0.       9.309e-25    0.     
  ibd      6.159e-24 -2.096e-24  1.280e-24  1.280e-24 -2.096e-24  9.309e-25
  vgs       12.5121p   15.8884p   17.0021p   17.0018p   17.9328p   17.0018p
  vds     -285.5784f    3.3762p   -1.2801p   -1.2801p    3.0269p -930.7570f
  vbs        5.8725p    1.2801p    0.         0.       930.7570f    0.     
  vth     -244.0771m  287.1450m  287.1450m  287.1450m  287.1450m  287.1450m
  vdsat    -41.0796m   40.8500m   40.8500m   40.8500m   40.8500m   40.8500m
  vod      244.0771m -287.1450m -287.1450m -287.1450m -287.1450m -287.1450m
  beta     680.0073u  854.8379u  854.8379u  854.8379u  854.8379u  854.8379u
  gam eff  162.3000m  323.1000m  323.1000m  323.1000m  323.1000m  323.1000m
  gm       1.682e-19    2.5703a  9.746e-19  9.746e-19    2.3044a  7.086e-19
  gds       18.2756n   23.5468n   23.5468n   23.5468n   23.5468n   23.5468n
  gmb      2.386e-20  4.250e-19  1.612e-19  1.612e-19  3.810e-19  1.172e-19
  cdtot      1.1247f  375.1821a  371.3612a  371.3612a  375.1821a  371.3612a
  cgtot      1.0219f  429.2603a  429.2603a  429.2603a  429.2603a  429.2603a
  cstot      1.1225f  371.3612a  375.1821a  375.1821a  371.3612a  375.1821a
  cbtot      1.7505f  667.0290a  667.0290a  667.0290a  667.0290a  667.0290a
  cgs      371.6813a  123.0344a  125.1327a  125.1327a  123.0344a  125.1327a
  cgd      377.8702a  125.1327a  123.0344a  123.0344a  125.1327a  123.0344a



 subckt                                                                    
 element  0:md21     0:md22     0:ma25     0:mb25     0:mc23     0:ma26    
 model    0:pch.9    0:nch.15   0:pch.9    0:pch.9    0:pch.9    0:pch.9   
 region       Cutoff     Cutoff     Cutoff     Cutoff     Cutoff     Cutoff
  id      -1.826e-20  6.096e-20  1.948e-20  1.948e-20  1.948e-20  1.458e-20
  ibs      5.381e-24    0.       7.446e-24  7.446e-24  7.446e-24  8.244e-24
  ibd      6.380e-24 -2.589e-24  6.380e-24  6.380e-24  6.380e-24  7.446e-24
  vgs     -492.8296f    2.0961p   16.4780p   16.4777p   14.0841p   17.2758p
  vds     -998.9522f    2.5889p    1.0659p    1.0659p    1.0659p  797.8004f
  vbs        5.3797p    0.         7.4445p    7.4445p    7.4445p    8.2423p
  vth     -244.0771m  287.1450m -244.0771m -244.0771m -244.0771m -244.0771m
  vdsat    -41.0796m   40.8500m  -41.0796m  -41.0796m  -41.0796m  -41.0796m
  vod      244.0771m -287.1450m  244.0771m  244.0771m  244.0771m  244.0771m
  beta     680.0073u  854.8379u  680.0073u  680.0073u  680.0073u  680.0073u
  gam eff  162.3000m  323.1000m  162.3000m  162.3000m  162.3000m  162.3000m
  gm       5.882e-19    1.9710a  6.276e-19  6.276e-19  6.276e-19  4.698e-19
  gds       18.2756n   23.5468n   18.2756n   18.2756n   18.2756n   18.2756n
  gmb      8.345e-20  3.259e-19  8.904e-20  8.904e-20  8.904e-20  6.665e-20
  cdtot      1.1247f  375.1821a    1.1225f    1.1225f    1.1225f    1.1225f
  cgtot      1.0219f  429.2603a    1.0219f    1.0219f    1.0219f    1.0219f
  cstot      1.1225f  371.3612a    1.1247f    1.1247f    1.1247f    1.1247f
  cbtot      1.7505f  667.0290a    1.7505f    1.7505f    1.7505f    1.7505f
  cgs      371.6813a  123.0344a  377.8702a  377.8702a  377.8702a  377.8702a
  cgd      377.8702a  125.1327a  371.6813a  371.6813a  371.6813a  371.6813a



 subckt                                                                    
 element  0:mb26     0:mc24     0:md23     0:md24     0:ma27     0:mb27    
 model    0:pch.9    0:pch.9    0:pch.9    0:nch.15   0:nch.15   0:nch.15  
 region       Cutoff     Cutoff     Cutoff     Cutoff     Cutoff     Cutoff
  id       1.469e-20  1.480e-20  4.407e-20  1.326e-20 -5.771e-20 -5.771e-20
  ibs      9.048e-24  9.858e-24  9.858e-24  2.451e-24    0.         0.     
  ibd      8.244e-24  9.048e-24  7.446e-24  1.888e-24  2.451e-24  2.451e-24
  vgs       18.0794p   16.4958p    3.9836p    4.5469p   17.0021p   17.0018p
  vds      803.8894f  809.9499f    2.4116p  563.2944f   -2.4508p   -2.4508p
  vbs        9.0462p    9.8562p    9.8562p    2.4508p    0.         0.     
  vth     -244.0771m -244.0771m -244.0771m  287.1450m  287.1450m  287.1450m
  vdsat    -41.0796m  -41.0796m  -41.0796m   40.8500m   40.8500m   40.8500m
  vod      244.0771m  244.0771m  244.0771m -287.1450m -287.1450m -287.1450m
  beta     680.0073u  680.0073u  680.0073u  854.8379u  854.8379u  854.8379u
  gam eff  162.3000m  162.3000m  162.3000m  323.1000m  323.1000m  323.1000m
  gm       4.734e-19  4.769e-19    1.4200a  4.288e-19    1.8658a    1.8658a
  gds       18.2756n   18.2756n   18.2756n   23.5468n   23.5468n   23.5468n
  gmb      6.716e-20  6.766e-20  2.015e-19  7.091e-20  3.085e-19  3.085e-19
  cdtot      1.1225f    1.1225f    1.1225f  375.1821a  371.3612a  371.3612a
  cgtot      1.0219f    1.0219f    1.0219f  429.2603a  429.2603a  429.2603a
  cstot      1.1247f    1.1247f    1.1247f  371.3612a  375.1821a  375.1821a
  cbtot      1.7505f    1.7505f    1.7505f  667.0290a  667.0290a  667.0290a
  cgs      377.8702a  377.8702a  377.8702a  123.0344a  125.1327a  125.1327a
  cgd      371.6813a  371.6813a  371.6813a  125.1327a  123.0344a  123.0344a



 subckt                                                                    
 element  0:mc25     0:ma28     0:mb28     0:mc26     0:md25     0:md26    
 model    0:nch.15   0:nch.15   0:nch.15   0:nch.15   0:pch.9    0:nch.15  
 region       Cutoff     Cutoff     Cutoff     Cutoff     Cutoff     Cutoff
  id      -5.771e-20  7.835e-20 -1.481e-20 -1.080e-19  3.673e-20 -9.891e-21
  ibs        0.       5.216e-24  4.587e-24    0.       8.390e-24    0.     
  ibd      2.451e-24  1.888e-24  5.216e-24  4.587e-24  6.380e-24  4.201e-25
  vgs       14.6082p   22.2172p   21.5878p   14.6082p   -1.4675p   -1.8875p
  vds       -2.4508p    3.3275p -629.0735f   -4.5860p    2.0100p -420.0370f
  vbs        0.         5.2151p    4.5860p    0.         8.3887p    0.     
  vth      287.1450m  287.1450m  287.1450m  287.1450m -244.0771m  287.1450m
  vdsat     40.8500m   40.8500m   40.8500m   40.8500m  -41.0796m   40.8500m
  vod     -287.1450m -287.1450m -287.1450m -287.1450m  244.0771m -287.1450m
  beta     854.8379u  854.8379u  854.8379u  854.8379u  680.0073u  854.8379u
  gam eff  323.1000m  323.1000m  323.1000m  323.1000m  162.3000m  323.1000m
  gm         1.8658a    2.5333a  4.789e-19    3.4914a    1.1836a  3.198e-19
  gds       23.5468n   23.5468n   23.5468n   23.5468n   18.2756n   23.5468n
  gmb      3.085e-19  4.189e-19  7.919e-20  5.773e-19  1.679e-19  5.288e-20
  cdtot    371.3612a  375.1821a  371.3612a  371.3612a    1.1225f  371.3612a
  cgtot    429.2603a  429.2603a  429.2603a  429.2603a    1.0219f  429.2603a
  cstot    375.1821a  371.3612a  375.1821a  375.1821a    1.1247f  375.1821a
  cbtot    667.0290a  667.0290a  667.0290a  667.0290a    1.7505f  667.0290a
  cgs      125.1327a  123.0344a  125.1327a  125.1327a  377.8702a  125.1327a
  cgd      123.0344a  125.1327a  123.0344a  123.0344a  371.6813a  123.0344a



 subckt                                                                    
 element  0:ma31     0:mb31     0:ma32     0:mb32     0:mc31     0:mc32    
 model    0:pch.9    0:pch.9    0:pch.9    0:pch.9    0:pch.9    0:nch.15  
 region       Cutoff     Cutoff     Cutoff     Cutoff     Cutoff     Cutoff
  id      -4.005e-21 -4.005e-21 -2.651e-21 -2.556e-21 -5.207e-21  7.947e-20
  ibs      6.160e-24  6.160e-24  6.015e-24  5.875e-24  5.875e-24  1.281e-24
  ibd      6.380e-24  6.380e-24  6.160e-24  6.015e-24  6.160e-24 -2.094e-24
  vgs       15.1930p   15.1927p   15.0479p   14.9077p  494.8862f    3.8700p
  vds     -219.1446f -219.1446f -145.0533f -139.8681f -284.9214f    3.3752p
  vbs        6.1595p    6.1595p    6.0145p    5.8746p    5.8746p    1.2811p
  vth     -244.0771m -244.0771m -244.0771m -244.0771m -244.0771m  287.1450m
  vdsat    -41.0796m  -41.0796m  -41.0796m  -41.0796m  -41.0796m   40.8500m
  vod      244.0771m  244.0771m  244.0771m  244.0771m  244.0771m -287.1450m
  beta     680.0073u  680.0073u  680.0073u  680.0073u  680.0073u  854.8379u
  gam eff  162.3000m  162.3000m  162.3000m  162.3000m  162.3000m  323.1000m
  gm       1.290e-19  1.290e-19  8.541e-20  8.236e-20  1.678e-19    2.5695a
  gds       18.2756n   18.2756n   18.2756n   18.2756n   18.2756n   23.5468n
  gmb      1.831e-20  1.831e-20  1.212e-20  1.168e-20  2.380e-20  4.249e-19
  cdtot      1.1247f    1.1247f    1.1247f    1.1247f    1.1247f  375.1821a
  cgtot      1.0219f    1.0219f    1.0219f    1.0219f    1.0219f  429.2603a
  cstot      1.1225f    1.1225f    1.1225f    1.1225f    1.1225f  371.3612a
  cbtot      1.7505f    1.7505f    1.7505f    1.7505f    1.7505f  667.0290a
  cgs      371.6813a  371.6813a  371.6813a  371.6813a  371.6813a  123.0344a
  cgd      377.8702a  377.8702a  377.8702a  377.8702a  377.8702a  125.1327a



 subckt                                                                    
 element  0:ma33     0:mb33     0:ma34     0:mb34     0:md31     0:md32    
 model    0:nch.15   0:nch.15   0:nch.15   0:nch.15   0:pch.9    0:nch.15  
 region       Cutoff     Cutoff     Cutoff     Cutoff     Cutoff     Cutoff
  id      -3.017e-20 -3.017e-20  7.125e-20 -2.194e-20  3.673e-20 -9.880e-21
  ibs        0.         0.       9.319e-25    0.       8.390e-24    0.     
  ibd      1.281e-24  1.281e-24 -2.094e-24  9.319e-25  6.380e-24  4.197e-25
  vgs       17.0021p   17.0018p   17.9339p   17.0018p    2.5137p    2.0940p
  vds       -1.2811p   -1.2811p    3.0258p -931.7891f    2.0096p -419.6063f
  vbs        0.         0.       931.7891f    0.         8.3882p    0.     
  vth      287.1450m  287.1450m  287.1450m  287.1450m -244.0771m  287.1450m
  vdsat     40.8500m   40.8500m   40.8500m   40.8500m  -41.0796m   40.8500m
  vod     -287.1450m -287.1450m -287.1450m -287.1450m  244.0771m -287.1450m
  beta     854.8379u  854.8379u  854.8379u  854.8379u  680.0073u  854.8379u
  gam eff  323.1000m  323.1000m  323.1000m  323.1000m  162.3000m  323.1000m
  gm       9.753e-19  9.753e-19    2.3036a  7.094e-19    1.1833a  3.195e-19
  gds       23.5468n   23.5468n   23.5468n   23.5468n   18.2756n   23.5468n
  gmb      1.613e-19  1.613e-19  3.809e-19  1.173e-19  1.679e-19  5.282e-20
  cdtot    371.3612a  371.3612a  375.1821a  371.3612a    1.1225f  371.3612a
  cgtot    429.2603a  429.2603a  429.2603a  429.2603a    1.0219f  429.2603a
  cstot    375.1821a  375.1821a  371.3612a  375.1821a    1.1247f  375.1821a
  cbtot    667.0290a  667.0290a  667.0290a  667.0290a    1.7505f  667.0290a
  cgs      125.1327a  125.1327a  123.0344a  125.1327a  377.8702a  125.1327a
  cgd      123.0344a  123.0344a  125.1327a  123.0344a  371.6813a  123.0344a



 subckt                                                                    
 element  0:ma35     0:mb35     0:mc33     0:ma36     0:mb36     0:mc34    
 model    0:pch.9    0:pch.9    0:pch.9    0:pch.9    0:pch.9    0:pch.9   
 region       Cutoff     Cutoff     Cutoff     Cutoff     Cutoff     Cutoff
  id       1.948e-20  1.948e-20  1.948e-20  1.458e-20  1.469e-20  1.480e-20
  ibs      7.446e-24  7.446e-24  7.446e-24  8.244e-24  9.048e-24  9.858e-24
  ibd      6.380e-24  6.380e-24  6.380e-24  7.446e-24  8.244e-24  9.048e-24
  vgs       16.4780p   16.4777p   14.0841p   17.2758p   18.0794p   16.4958p
  vds        1.0659p    1.0659p    1.0659p  797.8005f  803.8895f  809.9500f
  vbs        7.4445p    7.4445p    7.4445p    8.2423p    9.0462p    9.8562p
  vth     -244.0771m -244.0771m -244.0771m -244.0771m -244.0771m -244.0771m
  vdsat    -41.0796m  -41.0796m  -41.0796m  -41.0796m  -41.0796m  -41.0796m
  vod      244.0771m  244.0771m  244.0771m  244.0771m  244.0771m  244.0771m
  beta     680.0073u  680.0073u  680.0073u  680.0073u  680.0073u  680.0073u
  gam eff  162.3000m  162.3000m  162.3000m  162.3000m  162.3000m  162.3000m
  gm       6.276e-19  6.276e-19  6.276e-19  4.698e-19  4.734e-19  4.769e-19
  gds       18.2756n   18.2756n   18.2756n   18.2756n   18.2756n   18.2756n
  gmb      8.904e-20  8.904e-20  8.904e-20  6.665e-20  6.716e-20  6.766e-20
  cdtot      1.1225f    1.1225f    1.1225f    1.1225f    1.1225f    1.1225f
  cgtot      1.0219f    1.0219f    1.0219f    1.0219f    1.0219f    1.0219f
  cstot      1.1247f    1.1247f    1.1247f    1.1247f    1.1247f    1.1247f
  cbtot      1.7505f    1.7505f    1.7505f    1.7505f    1.7505f    1.7505f
  cgs      377.8702a  377.8702a  377.8702a  377.8702a  377.8702a  377.8702a
  cgd      371.6813a  371.6813a  371.6813a  371.6813a  371.6813a  371.6813a



 subckt                                                                    
 element  0:md33     0:md34     0:ma37     0:mb37     0:mc35     0:ma38    
 model    0:pch.9    0:nch.15   0:nch.15   0:nch.15   0:nch.15   0:nch.15  
 region       Cutoff     Cutoff     Cutoff     Cutoff     Cutoff     Cutoff
  id       4.407e-20  1.326e-20 -5.771e-20 -5.771e-20 -5.771e-20  7.835e-20
  ibs      9.858e-24  2.451e-24    0.         0.         0.       5.216e-24
  ibd      7.446e-24  1.888e-24  2.451e-24  2.451e-24  2.451e-24  1.888e-24
  vgs        3.9816p    4.5449p   17.0021p   17.0018p   14.6082p   22.2172p
  vds        2.4116p  563.2939f   -2.4508p   -2.4508p   -2.4508p    3.3275p
  vbs        9.8562p    2.4508p    0.         0.         0.         5.2151p
  vth     -244.0771m  287.1450m  287.1450m  287.1450m  287.1450m  287.1450m
  vdsat    -41.0796m   40.8500m   40.8500m   40.8500m   40.8500m   40.8500m
  vod      244.0771m -287.1450m -287.1450m -287.1450m -287.1450m -287.1450m
  beta     680.0073u  854.8379u  854.8379u  854.8379u  854.8379u  854.8379u
  gam eff  162.3000m  323.1000m  323.1000m  323.1000m  323.1000m  323.1000m
  gm         1.4200a  4.288e-19    1.8658a    1.8658a    1.8658a    2.5333a
  gds       18.2756n   23.5468n   23.5468n   23.5468n   23.5468n   23.5468n
  gmb      2.015e-19  7.091e-20  3.085e-19  3.085e-19  3.085e-19  4.189e-19
  cdtot      1.1225f  375.1821a  371.3612a  371.3612a  371.3612a  375.1821a
  cgtot      1.0219f  429.2603a  429.2603a  429.2603a  429.2603a  429.2603a
  cstot      1.1247f  371.3612a  375.1821a  375.1821a  375.1821a  371.3612a
  cbtot      1.7505f  667.0290a  667.0290a  667.0290a  667.0290a  667.0290a
  cgs      377.8702a  123.0344a  125.1327a  125.1327a  125.1327a  123.0344a
  cgd      371.6813a  125.1327a  123.0344a  123.0344a  123.0344a  125.1327a



 subckt                                              
 element  0:mb38     0:mc36     0:md35     0:md36    
 model    0:nch.15   0:nch.15   0:pch.9    0:nch.15  
 region       Cutoff     Cutoff     Cutoff     Cutoff
  id      -1.481e-20 -1.080e-19  3.673e-20 -9.891e-21
  ibs      4.587e-24    0.       8.390e-24    0.     
  ibd      5.216e-24  4.587e-24  6.380e-24  4.201e-25
  vgs       21.5878p   14.6082p   -1.4675p   -1.8875p
  vds     -629.0738f   -4.5860p    2.0100p -420.0370f
  vbs        4.5860p    0.         8.3887p    0.     
  vth      287.1450m  287.1450m -244.0771m  287.1450m
  vdsat     40.8500m   40.8500m  -41.0796m   40.8500m
  vod     -287.1450m -287.1450m  244.0771m -287.1450m
  beta     854.8379u  854.8379u  680.0073u  854.8379u
  gam eff  323.1000m  323.1000m  162.3000m  323.1000m
  gm       4.789e-19    3.4914a    1.1836a  3.198e-19
  gds       23.5468n   23.5468n   18.2756n   23.5468n
  gmb      7.919e-20  5.773e-19  1.679e-19  5.288e-20
  cdtot    371.3612a  371.3612a    1.1225f  371.3612a
  cgtot    429.2603a  429.2603a    1.0219f  429.2603a
  cstot    375.1821a  375.1821a    1.1247f  375.1821a
  cbtot    667.0290a  667.0290a    1.7505f  667.0290a
  cgs      125.1327a  125.1327a  377.8702a  125.1327a
  cgd      123.0344a  123.0344a  371.6813a  123.0344a



 ******
 *****4 bit ripple adder 90 nm*****

 ****** transient analysis tnom=  25.000 temp=  25.000 ******
 avgpower= 173.4362u  from=   0.             to=   2.0000n

          ***** job concluded
 ******  
 *****4 bit ripple adder 90 nm*****

 ****** job statistics summary tnom=  25.000 temp=  25.000 ******

  ******  HSPICE Threads Information  ******

  Command Line Threads Count :     1
  Available CPU Count        :     2
  Actual Threads Count       :     1


  ******  Circuit Statistics  ******
  # nodes       =      98 # elements   =     170
  # resistors   =      11 # capacitors =       0 # inductors   =       0
  # mutual_inds =       0 # vccs       =       0 # vcvs        =       0
  # cccs        =       0 # ccvs       =       0 # volt_srcs   =      11
  # curr_srcs   =       0 # diodes     =       0 # bjts        =       0
  # jfets       =       0 # mosfets    =     148 # U elements  =       0
  # T elements  =       0 # W elements =       0 # B elements  =       0
  # S elements  =       0 # P elements =       0 # va device   =       0
  # vector_srcs =       0 # N elements =       0


  ******  Runtime Statistics (seconds)  ******

  analysis           time    # points   tot. iter  conv.iter
  op point           0.02           1           3
  dc sweep           0.87         501        1003
  transient          0.11        1001         538         269 rev=        39
  readin             0.09
  errchk             0.01
  setup              0.00
  output             0.01


           peak memory used         55.46 megabytes
           total cpu time            1.12 seconds
           total elapsed time        1.31 seconds
           job started at     18:16:45 05/16/2020
           job ended   at     18:16:46 05/16/2020


  lic: Release hspice token(s) 
 lic: total license checkout elapse time:        0.18(s)
