$DATA1 SOURCE='HSPICE' VERSION='L-2016.06-SP1 win64' PARAM_COUNT=0
.TITLE '***** manmosester 45 nm *****'
 avgpower         temper           alter#          
  1.734e-004        25.0000        1               
